iidm/iidm-modification/src/test/resources/testCase_with_transformers.xiidm
<?xml version="1.0" encoding="UTF-8"?>
<iidm:network xmlns:iidm="http://www.powsybl.org/schema/iidm/1_10" id="shift/TestCase_with_transformers" caseDate="2023-08-25T17:35:29.641+02:00" forecastDistance="0" sourceFormat="UCTE" minimumValidationLevel="STEADY_STATE_HYPOTHESIS">
    <iidm:substation id="ES_L1_" country="ES">
        <iidm:voltageLevel id="ES_L1_1" nominalV="380.0" topologyKind="BUS_BREAKER">
            <iidm:busBreakerTopology>
                <iidm:bus id="ES_L1_1 ">
                    <iidm:property name="geographicalName" value="ES_L1_1"/>
                </iidm:bus>
            </iidm:busBreakerTopology>
            <iidm:generator id="ES_L1_1 _generator" energySource="OTHER" minP="-9000.0" maxP="9000.0" voltageRegulatorOn="true" targetP="0.0" targetV="380.0" targetQ="0.0" bus="ES_L1_1 " connectableBus="ES_L1_1 ">
                <iidm:minMaxReactiveLimits minQ="-9000.0" maxQ="9000.0"/>
            </iidm:generator>
            <iidm:load id="ES_L1_1 _load" loadType="UNDEFINED" p0="1967.0" q0="-53.5" bus="ES_L1_1 " connectableBus="ES_L1_1 "/>
        </iidm:voltageLevel>
    </iidm:substation>
    <iidm:substation id="ES_L2_" country="ES">
        <iidm:voltageLevel id="ES_L2_1" nominalV="380.0" topologyKind="BUS_BREAKER">
            <iidm:busBreakerTopology>
                <iidm:bus id="ES_L2_1 ">
                    <iidm:property name="geographicalName" value="ES_L2_1"/>
                </iidm:bus>
            </iidm:busBreakerTopology>
            <iidm:generator id="ES_L2_1 _generator" energySource="OTHER" minP="-9000.0" maxP="9000.0" voltageRegulatorOn="true" targetP="0.0" targetV="380.0" targetQ="0.0" bus="ES_L2_1 " connectableBus="ES_L2_1 ">
                <iidm:minMaxReactiveLimits minQ="-9000.0" maxQ="9000.0"/>
            </iidm:generator>
            <iidm:load id="ES_L2_1 _load" loadType="UNDEFINED" p0="1967.0" q0="-53.5" bus="ES_L2_1 " connectableBus="ES_L2_1 "/>
        </iidm:voltageLevel>
    </iidm:substation>
    <iidm:substation id="ES_E1_" country="ES">
        <iidm:voltageLevel id="ES_E1_1" nominalV="380.0" topologyKind="BUS_BREAKER">
            <iidm:busBreakerTopology>
                <iidm:bus id="ES_E1_1 ">
                    <iidm:property name="geographicalName" value="ES_E1_1"/>
                </iidm:bus>
            </iidm:busBreakerTopology>
            <iidm:generator id="ES_E1_1 _generator" energySource="OTHER" minP="-9000.0" maxP="9000.0" voltageRegulatorOn="true" targetP="0.0" targetV="380.0" targetQ="0.0" bus="ES_E1_1 " connectableBus="ES_E1_1 ">
                <iidm:minMaxReactiveLimits minQ="-9000.0" maxQ="9000.0"/>
            </iidm:generator>
        </iidm:voltageLevel>
    </iidm:substation>
    <iidm:substation id="ES_01_" country="ES">
        <iidm:voltageLevel id="ES_01_1" nominalV="380.0" topologyKind="BUS_BREAKER">
            <iidm:busBreakerTopology>
                <iidm:bus id="ES_01_1 ">
                    <iidm:property name="geographicalName" value="ES_01_1"/>
                </iidm:bus>
            </iidm:busBreakerTopology>
            <iidm:generator id="ES_01_1 _generator" energySource="OTHER" minP="-9000.0" maxP="9000.0" voltageRegulatorOn="true" targetP="0.0" targetV="380.0" targetQ="0.0" bus="ES_01_1 " connectableBus="ES_01_1 ">
                <iidm:minMaxReactiveLimits minQ="-9000.0" maxQ="9000.0"/>
            </iidm:generator>
        </iidm:voltageLevel>
    </iidm:substation>
    <iidm:substation id="ES_02_" country="ES">
        <iidm:voltageLevel id="ES_02_1" nominalV="380.0" topologyKind="BUS_BREAKER">
            <iidm:busBreakerTopology>
                <iidm:bus id="ES_02_1 ">
                    <iidm:property name="geographicalName" value="ES_02_1"/>
                </iidm:bus>
            </iidm:busBreakerTopology>
            <iidm:generator id="ES_02_1 _generator" energySource="OTHER" minP="-9000.0" maxP="9000.0" voltageRegulatorOn="true" targetP="0.0" targetV="380.0" targetQ="0.0" bus="ES_02_1 " connectableBus="ES_02_1 ">
                <iidm:minMaxReactiveLimits minQ="-9000.0" maxQ="9000.0"/>
            </iidm:generator>
        </iidm:voltageLevel>
    </iidm:substation>
    <iidm:substation id="ESCTGN" country="ES">
        <iidm:voltageLevel id="ESCTGN1" nominalV="380.0" topologyKind="BUS_BREAKER">
            <iidm:busBreakerTopology>
                <iidm:bus id="ESCTGN1 ">
                    <iidm:property name="geographicalName" value="ESCTGN1"/>
                </iidm:bus>
                <iidm:bus id="ES_03_1 ">
                    <iidm:property name="geographicalName" value="ES_03_1"/>
                </iidm:bus>
            </iidm:busBreakerTopology>
            <iidm:generator id="ESCTGN1 _generator" energySource="OTHER" minP="-9000.0" maxP="9000.0" voltageRegulatorOn="true" targetP="1000.0" targetV="380.0" targetQ="0.0" bus="ESCTGN1 " connectableBus="ESCTGN1 ">
                <iidm:minMaxReactiveLimits minQ="-9000.0" maxQ="9000.0"/>
            </iidm:generator>
            <iidm:generator id="ES_03_1 _generator" energySource="OTHER" minP="-9000.0" maxP="9000.0" voltageRegulatorOn="true" targetP="0.0" targetV="380.0" targetQ="0.0" bus="ES_03_1 " connectableBus="ES_03_1 ">
                <iidm:minMaxReactiveLimits minQ="-9000.0" maxQ="9000.0"/>
            </iidm:generator>
            <iidm:load id="ESCTGN1 _load" loadType="UNDEFINED" p0="0.0" q0="-2.0" bus="ESCTGN1 " connectableBus="ESCTGN1 "/>
        </iidm:voltageLevel>
        <iidm:twoWindingsTransformer id="ES_03_1  ESCTGN1  1" r="0.1" x="10.0" g="0.0" b="0.0" ratedU1="400.0" ratedU2="400.0" bus1="ESCTGN1 " connectableBus1="ESCTGN1 " voltageLevelId1="ESCTGN1" bus2="ES_03_1 " connectableBus2="ES_03_1 " voltageLevelId2="ESCTGN1">
            <iidm:property name="nomimalPower" value="999.0"/>
            <iidm:currentLimits2 permanentLimit="999999.0"/>
        </iidm:twoWindingsTransformer>
    </iidm:substation>
    <iidm:substation id="ESCTGU" country="ES">
        <iidm:voltageLevel id="ESCTGU1" nominalV="380.0" topologyKind="BUS_BREAKER">
            <iidm:busBreakerTopology>
                <iidm:bus id="ESCTGU1 ">
                    <iidm:property name="geographicalName" value="ESCTGU1"/>
                </iidm:bus>
                <iidm:bus id="ES_04_1 ">
                    <iidm:property name="geographicalName" value="ES_04_1"/>
                </iidm:bus>
            </iidm:busBreakerTopology>
            <iidm:generator id="ESCTGU1 _generator" energySource="OTHER" minP="-9000.0" maxP="9000.0" voltageRegulatorOn="true" targetP="1000.0" targetV="380.0" targetQ="0.0" bus="ESCTGU1 " connectableBus="ESCTGU1 ">
                <iidm:minMaxReactiveLimits minQ="-9000.0" maxQ="9000.0"/>
            </iidm:generator>
            <iidm:generator id="ES_04_1 _generator" energySource="OTHER" minP="-9000.0" maxP="9000.0" voltageRegulatorOn="true" targetP="0.0" targetV="380.0" targetQ="0.0" bus="ES_04_1 " connectableBus="ES_04_1 ">
                <iidm:minMaxReactiveLimits minQ="-9000.0" maxQ="9000.0"/>
            </iidm:generator>
            <iidm:load id="ESCTGU1 _load" loadType="UNDEFINED" p0="0.0" q0="-2.0" bus="ESCTGU1 " connectableBus="ESCTGU1 "/>
        </iidm:voltageLevel>
        <iidm:twoWindingsTransformer id="ES_04_1  ESCTGU1  1" r="0.1" x="10.0" g="0.0" b="0.0" ratedU1="400.0" ratedU2="400.0" bus1="ESCTGU1 " connectableBus1="ESCTGU1 " voltageLevelId1="ESCTGU1" bus2="ES_04_1 " connectableBus2="ES_04_1 " voltageLevelId2="ESCTGU1">
            <iidm:property name="nomimalPower" value="999.0"/>
            <iidm:currentLimits2 permanentLimit="999999.0"/>
        </iidm:twoWindingsTransformer>
    </iidm:substation>
    <iidm:substation id="ES_05_" country="ES">
        <iidm:voltageLevel id="ES_05_1" nominalV="380.0" topologyKind="BUS_BREAKER">
            <iidm:busBreakerTopology>
                <iidm:bus id="ES_05_1 ">
                    <iidm:property name="geographicalName" value="ES_05_1"/>
                </iidm:bus>
            </iidm:busBreakerTopology>
            <iidm:generator id="ES_05_1 _generator" energySource="OTHER" minP="-9000.0" maxP="9000.0" voltageRegulatorOn="true" targetP="0.0" targetV="380.0" targetQ="0.0" bus="ES_05_1 " connectableBus="ES_05_1 ">
                <iidm:minMaxReactiveLimits minQ="-9000.0" maxQ="9000.0"/>
            </iidm:generator>
        </iidm:voltageLevel>
    </iidm:substation>
    <iidm:substation id="ES_06_" country="ES">
        <iidm:voltageLevel id="ES_06_1" nominalV="380.0" topologyKind="BUS_BREAKER">
            <iidm:busBreakerTopology>
                <iidm:bus id="ES_06_1 ">
                    <iidm:property name="geographicalName" value="ES_06_1"/>
                </iidm:bus>
            </iidm:busBreakerTopology>
            <iidm:generator id="ES_06_1 _generator" energySource="OTHER" minP="-9000.0" maxP="9000.0" voltageRegulatorOn="true" targetP="0.0" targetV="380.0" targetQ="0.0" bus="ES_06_1 " connectableBus="ES_06_1 ">
                <iidm:minMaxReactiveLimits minQ="-9000.0" maxQ="9000.0"/>
            </iidm:generator>
        </iidm:voltageLevel>
    </iidm:substation>
    <iidm:substation id="ESDTGN" country="ES">
        <iidm:voltageLevel id="ESDTGN1" nominalV="380.0" topologyKind="BUS_BREAKER">
            <iidm:busBreakerTopology>
                <iidm:bus id="ESDTGN1 ">
                    <iidm:property name="geographicalName" value="ESDTGN1"/>
                </iidm:bus>
                <iidm:bus id="ES_07_1 ">
                    <iidm:property name="geographicalName" value="ES_07_1"/>
                </iidm:bus>
            </iidm:busBreakerTopology>
            <iidm:generator id="ESDTGN1 _generator" energySource="OTHER" minP="-9000.0" maxP="9000.0" voltageRegulatorOn="true" targetP="0.0" targetV="380.0" targetQ="0.0" connectableBus="ESDTGN1 ">
                <iidm:minMaxReactiveLimits minQ="-9000.0" maxQ="9000.0"/>
            </iidm:generator>
            <iidm:generator id="ES_07_1 _generator" energySource="OTHER" minP="-9000.0" maxP="9000.0" voltageRegulatorOn="true" targetP="0.0" targetV="380.0" targetQ="0.0" bus="ES_07_1 " connectableBus="ES_07_1 ">
                <iidm:minMaxReactiveLimits minQ="-9000.0" maxQ="9000.0"/>
            </iidm:generator>
            <iidm:load id="ESDTGN1 _load" loadType="UNDEFINED" p0="0.0" q0="-2.0" bus="ESDTGN1 " connectableBus="ESDTGN1 "/>
        </iidm:voltageLevel>
        <iidm:twoWindingsTransformer id="ES_07_1  ESDTGN1  1" r="0.1" x="10.0" g="0.0" b="0.0" ratedU1="400.0" ratedU2="400.0" connectableBus1="ESDTGN1 " voltageLevelId1="ESDTGN1" connectableBus2="ES_07_1 " voltageLevelId2="ESDTGN1">
            <iidm:property name="nomimalPower" value="999.0"/>
            <iidm:currentLimits2 permanentLimit="999999.0"/>
        </iidm:twoWindingsTransformer>
    </iidm:substation>
    <iidm:substation id="ESDTGU" country="ES">
        <iidm:voltageLevel id="ESDTGU1" nominalV="380.0" topologyKind="BUS_BREAKER">
            <iidm:busBreakerTopology>
                <iidm:bus id="ESDTGU1 ">
                    <iidm:property name="geographicalName" value="ESDTGU1"/>
                </iidm:bus>
                <iidm:bus id="ES_08_1 ">
                    <iidm:property name="geographicalName" value="ES_08_1"/>
                </iidm:bus>
            </iidm:busBreakerTopology>
            <iidm:generator id="ESDTGU1 _generator" energySource="OTHER" minP="-9000.0" maxP="9000.0" voltageRegulatorOn="true" targetP="0.0" targetV="380.0" targetQ="0.0" connectableBus="ESDTGU1 ">
                <iidm:minMaxReactiveLimits minQ="-9000.0" maxQ="9000.0"/>
            </iidm:generator>
            <iidm:generator id="ES_08_1 _generator" energySource="OTHER" minP="-9000.0" maxP="9000.0" voltageRegulatorOn="true" targetP="0.0" targetV="380.0" targetQ="0.0" bus="ES_08_1 " connectableBus="ES_08_1 ">
                <iidm:minMaxReactiveLimits minQ="-9000.0" maxQ="9000.0"/>
            </iidm:generator>
            <iidm:load id="ESDTGU1 _load" loadType="UNDEFINED" p0="0.0" q0="-2.0" bus="ESDTGU1 " connectableBus="ESDTGU1 "/>
        </iidm:voltageLevel>
        <iidm:twoWindingsTransformer id="ES_08_1  ESDTGU1  1" r="0.1" x="10.0" g="0.0" b="0.0" ratedU1="400.0" ratedU2="400.0" connectableBus1="ESDTGU1 " voltageLevelId1="ESDTGU1" connectableBus2="ES_08_1 " voltageLevelId2="ESDTGU1">
            <iidm:property name="nomimalPower" value="999.0"/>
            <iidm:currentLimits2 permanentLimit="999999.0"/>
        </iidm:twoWindingsTransformer>
    </iidm:substation>
    <iidm:substation id="ESD2GN" country="ES">
        <iidm:voltageLevel id="ESD2GN1" nominalV="380.0" topologyKind="BUS_BREAKER">
            <iidm:busBreakerTopology>
                <iidm:bus id="ESD2GN1 ">
                    <iidm:property name="geographicalName" value="ESD2GN1"/>
                </iidm:bus>
                <iidm:bus id="ES_09_1 ">
                    <iidm:property name="geographicalName" value="ES_09_1"/>
                </iidm:bus>
            </iidm:busBreakerTopology>
            <iidm:generator id="ESD2GN1 _generator" energySource="OTHER" minP="-9000.0" maxP="9000.0" voltageRegulatorOn="true" targetP="0.0" targetV="380.0" targetQ="0.0" connectableBus="ESD2GN1 ">
                <iidm:minMaxReactiveLimits minQ="-9000.0" maxQ="9000.0"/>
            </iidm:generator>
            <iidm:generator id="ES_09_1 _generator" energySource="OTHER" minP="-9000.0" maxP="9000.0" voltageRegulatorOn="true" targetP="0.0" targetV="380.0" targetQ="0.0" bus="ES_09_1 " connectableBus="ES_09_1 ">
                <iidm:minMaxReactiveLimits minQ="-9000.0" maxQ="9000.0"/>
            </iidm:generator>
            <iidm:load id="ESD2GN1 _load" loadType="UNDEFINED" p0="0.0" q0="-2.0" bus="ESD2GN1 " connectableBus="ESD2GN1 "/>
        </iidm:voltageLevel>
        <iidm:twoWindingsTransformer id="ES_09_1  ESD2GN1  1" r="0.1" x="10.0" g="0.0" b="0.0" ratedU1="400.0" ratedU2="400.0" connectableBus1="ESD2GN1 " voltageLevelId1="ESD2GN1" connectableBus2="ES_09_1 " voltageLevelId2="ESD2GN1">
            <iidm:property name="nomimalPower" value="999.0"/>
            <iidm:currentLimits2 permanentLimit="999999.0"/>
        </iidm:twoWindingsTransformer>
        <iidm:twoWindingsTransformer id="ES_09_1  ESD2GN1  2" r="0.1" x="10.0" g="0.0" b="0.0" ratedU1="400.0" ratedU2="400.0" connectableBus1="ESD2GN1 " voltageLevelId1="ESD2GN1" connectableBus2="ES_09_1 " voltageLevelId2="ESD2GN1">
            <iidm:property name="nomimalPower" value="999.0"/>
            <iidm:currentLimits2 permanentLimit="999999.0"/>
        </iidm:twoWindingsTransformer>
    </iidm:substation>
    <iidm:substation id="ESD2GU" country="ES">
        <iidm:voltageLevel id="ESD2GU1" nominalV="380.0" topologyKind="BUS_BREAKER">
            <iidm:busBreakerTopology>
                <iidm:bus id="ESD2GU1 ">
                    <iidm:property name="geographicalName" value="ESD2GU1"/>
                </iidm:bus>
                <iidm:bus id="ES_10_1 ">
                    <iidm:property name="geographicalName" value="ES_10_1"/>
                </iidm:bus>
            </iidm:busBreakerTopology>
            <iidm:generator id="ESD2GU1 _generator" energySource="OTHER" minP="-9000.0" maxP="9000.0" voltageRegulatorOn="true" targetP="0.0" targetV="380.0" targetQ="0.0" connectableBus="ESD2GU1 ">
                <iidm:minMaxReactiveLimits minQ="-9000.0" maxQ="9000.0"/>
            </iidm:generator>
            <iidm:generator id="ES_10_1 _generator" energySource="OTHER" minP="-9000.0" maxP="9000.0" voltageRegulatorOn="true" targetP="0.0" targetV="380.0" targetQ="0.0" bus="ES_10_1 " connectableBus="ES_10_1 ">
                <iidm:minMaxReactiveLimits minQ="-9000.0" maxQ="9000.0"/>
            </iidm:generator>
            <iidm:load id="ESD2GU1 _load" loadType="UNDEFINED" p0="0.0" q0="-2.0" bus="ESD2GU1 " connectableBus="ESD2GU1 "/>
        </iidm:voltageLevel>
        <iidm:twoWindingsTransformer id="ES_10_1  ESD2GU1  1" r="0.1" x="10.0" g="0.0" b="0.0" ratedU1="400.0" ratedU2="400.0" connectableBus1="ESD2GU1 " voltageLevelId1="ESD2GU1" connectableBus2="ES_10_1 " voltageLevelId2="ESD2GU1">
            <iidm:property name="nomimalPower" value="999.0"/>
            <iidm:currentLimits2 permanentLimit="999999.0"/>
        </iidm:twoWindingsTransformer>
        <iidm:twoWindingsTransformer id="ES_10_1  ESD2GU1  2" r="0.1" x="10.0" g="0.0" b="0.0" ratedU1="400.0" ratedU2="400.0" connectableBus1="ESD2GU1 " voltageLevelId1="ESD2GU1" connectableBus2="ES_10_1 " voltageLevelId2="ESD2GU1">
            <iidm:property name="nomimalPower" value="999.0"/>
            <iidm:currentLimits2 permanentLimit="999999.0"/>
        </iidm:twoWindingsTransformer>
    </iidm:substation>
    <iidm:substation id="ES_11_" country="ES">
        <iidm:voltageLevel id="ES_11_1" nominalV="380.0" topologyKind="BUS_BREAKER">
            <iidm:busBreakerTopology>
                <iidm:bus id="ES_11_1 ">
                    <iidm:property name="geographicalName" value="ES_11_1"/>
                </iidm:bus>
            </iidm:busBreakerTopology>
            <iidm:generator id="ES_11_1 _generator" energySource="OTHER" minP="-9000.0" maxP="9000.0" voltageRegulatorOn="true" targetP="0.0" targetV="380.0" targetQ="0.0" bus="ES_11_1 " connectableBus="ES_11_1 ">
                <iidm:minMaxReactiveLimits minQ="-9000.0" maxQ="9000.0"/>
            </iidm:generator>
        </iidm:voltageLevel>
    </iidm:substation>
    <iidm:substation id="ESCDGN" country="ES">
        <iidm:voltageLevel id="ESCDGN1" nominalV="380.0" topologyKind="BUS_BREAKER">
            <iidm:busBreakerTopology>
                <iidm:bus id="ESCDGN1 ">
                    <iidm:property name="geographicalName" value="ESCDGN1"/>
                </iidm:bus>
                <iidm:bus id="ES_12_1 ">
                    <iidm:property name="geographicalName" value="ES_12_1"/>
                </iidm:bus>
            </iidm:busBreakerTopology>
            <iidm:generator id="ESCDGN1 _generator" energySource="OTHER" minP="-9000.0" maxP="9000.0" voltageRegulatorOn="true" targetP="0.0" targetV="380.0" targetQ="0.0" connectableBus="ESCDGN1 ">
                <iidm:minMaxReactiveLimits minQ="-9000.0" maxQ="9000.0"/>
            </iidm:generator>
            <iidm:generator id="ES_12_1 _generator" energySource="OTHER" minP="-9000.0" maxP="9000.0" voltageRegulatorOn="true" targetP="0.0" targetV="380.0" targetQ="0.0" bus="ES_12_1 " connectableBus="ES_12_1 ">
                <iidm:minMaxReactiveLimits minQ="-9000.0" maxQ="9000.0"/>
            </iidm:generator>
            <iidm:load id="ESCDGN1 _load" loadType="UNDEFINED" p0="0.0" q0="-2.0" bus="ESCDGN1 " connectableBus="ESCDGN1 "/>
        </iidm:voltageLevel>
        <iidm:twoWindingsTransformer id="ES_12_1  ESCDGN1  1" r="0.1" x="10.0" g="0.0" b="0.0" ratedU1="400.0" ratedU2="400.0" connectableBus1="ESCDGN1 " voltageLevelId1="ESCDGN1" connectableBus2="ES_12_1 " voltageLevelId2="ESCDGN1">
            <iidm:property name="nomimalPower" value="999.0"/>
            <iidm:currentLimits2 permanentLimit="999999.0"/>
        </iidm:twoWindingsTransformer>
    </iidm:substation>
    <iidm:substation id="ES_13_" country="ES">
        <iidm:voltageLevel id="ES_13_1" nominalV="380.0" topologyKind="BUS_BREAKER">
            <iidm:busBreakerTopology>
                <iidm:bus id="ES_13_1 ">
                    <iidm:property name="geographicalName" value="ES_13_1"/>
                </iidm:bus>
            </iidm:busBreakerTopology>
            <iidm:generator id="ES_13_1 _generator" energySource="OTHER" minP="-9000.0" maxP="9000.0" voltageRegulatorOn="true" targetP="0.0" targetV="380.0" targetQ="0.0" bus="ES_13_1 " connectableBus="ES_13_1 ">
                <iidm:minMaxReactiveLimits minQ="-9000.0" maxQ="9000.0"/>
            </iidm:generator>
        </iidm:voltageLevel>
    </iidm:substation>
    <iidm:substation id="ESCDGU" country="ES">
        <iidm:voltageLevel id="ESCDGU1" nominalV="380.0" topologyKind="BUS_BREAKER">
            <iidm:busBreakerTopology>
                <iidm:bus id="ESCDGU1 ">
                    <iidm:property name="geographicalName" value="ESCDGU1"/>
                </iidm:bus>
                <iidm:bus id="ES_14_1 ">
                    <iidm:property name="geographicalName" value="ES_14_1"/>
                </iidm:bus>
            </iidm:busBreakerTopology>
            <iidm:generator id="ESCDGU1 _generator" energySource="OTHER" minP="-9000.0" maxP="9000.0" voltageRegulatorOn="true" targetP="0.0" targetV="380.0" targetQ="0.0" connectableBus="ESCDGU1 ">
                <iidm:minMaxReactiveLimits minQ="-9000.0" maxQ="9000.0"/>
            </iidm:generator>
            <iidm:generator id="ES_14_1 _generator" energySource="OTHER" minP="-9000.0" maxP="9000.0" voltageRegulatorOn="true" targetP="0.0" targetV="380.0" targetQ="0.0" bus="ES_14_1 " connectableBus="ES_14_1 ">
                <iidm:minMaxReactiveLimits minQ="-9000.0" maxQ="9000.0"/>
            </iidm:generator>
            <iidm:load id="ESCDGU1 _load" loadType="UNDEFINED" p0="0.0" q0="-2.0" bus="ESCDGU1 " connectableBus="ESCDGU1 "/>
        </iidm:voltageLevel>
        <iidm:twoWindingsTransformer id="ES_14_1  ESCDGU1  1" r="0.1" x="10.0" g="0.0" b="0.0" ratedU1="400.0" ratedU2="400.0" connectableBus1="ESCDGU1 " voltageLevelId1="ESCDGU1" connectableBus2="ES_14_1 " voltageLevelId2="ESCDGU1">
            <iidm:property name="nomimalPower" value="999.0"/>
            <iidm:currentLimits2 permanentLimit="999999.0"/>
        </iidm:twoWindingsTransformer>
    </iidm:substation>
    <iidm:substation id="ESDCGU" country="ES">
        <iidm:voltageLevel id="ESDCGU1" nominalV="380.0" topologyKind="BUS_BREAKER">
            <iidm:busBreakerTopology>
                <iidm:bus id="ESDCGU1 ">
                    <iidm:property name="geographicalName" value="ESDCGU1"/>
                </iidm:bus>
            </iidm:busBreakerTopology>
            <iidm:generator id="ESDCGU1 _generator" energySource="OTHER" minP="-9000.0" maxP="9000.0" voltageRegulatorOn="true" targetP="1000.0" targetV="380.0" targetQ="0.0" bus="ESDCGU1 " connectableBus="ESDCGU1 ">
                <iidm:minMaxReactiveLimits minQ="-9000.0" maxQ="9000.0"/>
            </iidm:generator>
            <iidm:load id="ESDCGU1 _load" loadType="UNDEFINED" p0="0.0" q0="-2.0" bus="ESDCGU1 " connectableBus="ESDCGU1 "/>
        </iidm:voltageLevel>
    </iidm:substation>
    <iidm:substation id="ESDCGN" country="ES">
        <iidm:voltageLevel id="ESDCGN1" nominalV="380.0" topologyKind="BUS_BREAKER">
            <iidm:busBreakerTopology>
                <iidm:bus id="ESDCGN1 ">
                    <iidm:property name="geographicalName" value="ESDCGN1"/>
                </iidm:bus>
            </iidm:busBreakerTopology>
            <iidm:generator id="ESDCGN1 _generator" energySource="OTHER" minP="-9000.0" maxP="9000.0" voltageRegulatorOn="true" targetP="1000.0" targetV="380.0" targetQ="0.0" bus="ESDCGN1 " connectableBus="ESDCGN1 ">
                <iidm:minMaxReactiveLimits minQ="-9000.0" maxQ="9000.0"/>
            </iidm:generator>
            <iidm:load id="ESDCGN1 _load" loadType="UNDEFINED" p0="0.0" q0="-2.0" bus="ESDCGN1 " connectableBus="ESDCGN1 "/>
        </iidm:voltageLevel>
    </iidm:substation>
    <iidm:substation id="ESDDGU" country="ES">
        <iidm:voltageLevel id="ESDDGU1" nominalV="380.0" topologyKind="BUS_BREAKER">
            <iidm:busBreakerTopology>
                <iidm:bus id="ESDDGU1 ">
                    <iidm:property name="geographicalName" value="ESDDGU1"/>
                </iidm:bus>
            </iidm:busBreakerTopology>
            <iidm:generator id="ESDDGU1 _generator" energySource="OTHER" minP="-9000.0" maxP="9000.0" voltageRegulatorOn="true" targetP="0.0" targetV="380.0" targetQ="0.0" connectableBus="ESDDGU1 ">
                <iidm:minMaxReactiveLimits minQ="-9000.0" maxQ="9000.0"/>
            </iidm:generator>
            <iidm:load id="ESDDGU1 _load" loadType="UNDEFINED" p0="0.0" q0="-2.0" bus="ESDDGU1 " connectableBus="ESDDGU1 "/>
        </iidm:voltageLevel>
    </iidm:substation>
    <iidm:substation id="ESDDGN" country="ES">
        <iidm:voltageLevel id="ESDDGN1" nominalV="380.0" topologyKind="BUS_BREAKER">
            <iidm:busBreakerTopology>
                <iidm:bus id="ESDDGN1 ">
                    <iidm:property name="geographicalName" value="ESDDGN1"/>
                </iidm:bus>
            </iidm:busBreakerTopology>
            <iidm:generator id="ESDDGN1 _generator" energySource="OTHER" minP="-9000.0" maxP="9000.0" voltageRegulatorOn="true" targetP="0.0" targetV="380.0" targetQ="0.0" connectableBus="ESDDGN1 ">
                <iidm:minMaxReactiveLimits minQ="-9000.0" maxQ="9000.0"/>
            </iidm:generator>
            <iidm:load id="ESDDGN1 _load" loadType="UNDEFINED" p0="0.0" q0="-2.0" bus="ESDDGN1 " connectableBus="ESDDGN1 "/>
        </iidm:voltageLevel>
    </iidm:substation>
    <iidm:line id="ES_01_1  ES_04_1  1" r="2.0" x="10.0" g1="0.0" b1="2.4999999999999998E-5" g2="0.0" b2="2.4999999999999998E-5" bus1="ES_01_1 " connectableBus1="ES_01_1 " voltageLevelId1="ES_01_1" bus2="ES_04_1 " connectableBus2="ES_04_1 " voltageLevelId2="ESCTGU1">
        <iidm:currentLimits1 permanentLimit="5000.0"/>
        <iidm:currentLimits2 permanentLimit="5000.0"/>
    </iidm:line>
    <iidm:line id="ES_10_1  ES_04_1  1" r="2.0" x="10.0" g1="0.0" b1="2.4999999999999998E-5" g2="0.0" b2="2.4999999999999998E-5" bus1="ES_10_1 " connectableBus1="ES_10_1 " voltageLevelId1="ESD2GU1" bus2="ES_04_1 " connectableBus2="ES_04_1 " voltageLevelId2="ESCTGU1">
        <iidm:currentLimits1 permanentLimit="5000.0"/>
        <iidm:currentLimits2 permanentLimit="5000.0"/>
    </iidm:line>
    <iidm:line id="ES_10_1  ES_08_1  1" r="2.0" x="10.0" g1="0.0" b1="2.4999999999999998E-5" g2="0.0" b2="2.4999999999999998E-5" bus1="ES_10_1 " connectableBus1="ES_10_1 " voltageLevelId1="ESD2GU1" bus2="ES_08_1 " connectableBus2="ES_08_1 " voltageLevelId2="ESDTGU1">
        <iidm:currentLimits1 permanentLimit="5000.0"/>
        <iidm:currentLimits2 permanentLimit="5000.0"/>
    </iidm:line>
    <iidm:line id="ES_11_1  ES_08_1  1" r="2.0" x="10.0" g1="0.0" b1="2.4999999999999998E-5" g2="0.0" b2="2.4999999999999998E-5" bus1="ES_11_1 " connectableBus1="ES_11_1 " voltageLevelId1="ES_11_1" bus2="ES_08_1 " connectableBus2="ES_08_1 " voltageLevelId2="ESDTGU1">
        <iidm:currentLimits1 permanentLimit="5000.0"/>
        <iidm:currentLimits2 permanentLimit="5000.0"/>
    </iidm:line>
    <iidm:line id="ES_11_1  ES_05_1  1" r="2.0" x="10.0" g1="0.0" b1="2.4999999999999998E-5" g2="0.0" b2="2.4999999999999998E-5" bus1="ES_11_1 " connectableBus1="ES_11_1 " voltageLevelId1="ES_11_1" bus2="ES_05_1 " connectableBus2="ES_05_1 " voltageLevelId2="ES_05_1">
        <iidm:currentLimits1 permanentLimit="5000.0"/>
        <iidm:currentLimits2 permanentLimit="5000.0"/>
    </iidm:line>
    <iidm:line id="ES_02_1  ES_05_1  1" r="2.0" x="10.0" g1="0.0" b1="2.4999999999999998E-5" g2="0.0" b2="2.4999999999999998E-5" bus1="ES_02_1 " connectableBus1="ES_02_1 " voltageLevelId1="ES_02_1" bus2="ES_05_1 " connectableBus2="ES_05_1 " voltageLevelId2="ES_05_1">
        <iidm:currentLimits1 permanentLimit="5000.0"/>
        <iidm:currentLimits2 permanentLimit="5000.0"/>
    </iidm:line>
    <iidm:line id="ES_02_1  ES_03_1  1" r="2.0" x="10.0" g1="0.0" b1="2.4999999999999998E-5" g2="0.0" b2="2.4999999999999998E-5" bus1="ES_02_1 " connectableBus1="ES_02_1 " voltageLevelId1="ES_02_1" bus2="ES_03_1 " connectableBus2="ES_03_1 " voltageLevelId2="ESCTGN1">
        <iidm:currentLimits1 permanentLimit="5000.0"/>
        <iidm:currentLimits2 permanentLimit="5000.0"/>
    </iidm:line>
    <iidm:line id="ES_07_1  ES_03_1  1" r="2.0" x="10.0" g1="0.0" b1="2.4999999999999998E-5" g2="0.0" b2="2.4999999999999998E-5" bus1="ES_07_1 " connectableBus1="ES_07_1 " voltageLevelId1="ESDTGN1" bus2="ES_03_1 " connectableBus2="ES_03_1 " voltageLevelId2="ESCTGN1">
        <iidm:currentLimits1 permanentLimit="5000.0"/>
        <iidm:currentLimits2 permanentLimit="5000.0"/>
    </iidm:line>
    <iidm:line id="ES_07_1  ES_13_1  1" r="2.0" x="10.0" g1="0.0" b1="2.4999999999999998E-5" g2="0.0" b2="2.4999999999999998E-5" bus1="ES_07_1 " connectableBus1="ES_07_1 " voltageLevelId1="ESDTGN1" bus2="ES_13_1 " connectableBus2="ES_13_1 " voltageLevelId2="ES_13_1">
        <iidm:currentLimits1 permanentLimit="5000.0"/>
        <iidm:currentLimits2 permanentLimit="5000.0"/>
    </iidm:line>
    <iidm:line id="ES_09_1  ES_13_1  1" r="2.0" x="10.0" g1="0.0" b1="2.4999999999999998E-5" g2="0.0" b2="2.4999999999999998E-5" bus1="ES_09_1 " connectableBus1="ES_09_1 " voltageLevelId1="ESD2GN1" bus2="ES_13_1 " connectableBus2="ES_13_1 " voltageLevelId2="ES_13_1">
        <iidm:currentLimits1 permanentLimit="5000.0"/>
        <iidm:currentLimits2 permanentLimit="5000.0"/>
    </iidm:line>
    <iidm:line id="ES_09_1  ES_06_1  1" r="2.0" x="10.0" g1="0.0" b1="2.4999999999999998E-5" g2="0.0" b2="2.4999999999999998E-5" bus1="ES_09_1 " connectableBus1="ES_09_1 " voltageLevelId1="ESD2GN1" bus2="ES_06_1 " connectableBus2="ES_06_1 " voltageLevelId2="ES_06_1">
        <iidm:currentLimits1 permanentLimit="5000.0"/>
        <iidm:currentLimits2 permanentLimit="5000.0"/>
    </iidm:line>
    <iidm:line id="ES_01_1  ES_06_1  1" r="2.0" x="10.0" g1="0.0" b1="2.4999999999999998E-5" g2="0.0" b2="2.4999999999999998E-5" bus1="ES_01_1 " connectableBus1="ES_01_1 " voltageLevelId1="ES_01_1" bus2="ES_06_1 " connectableBus2="ES_06_1 " voltageLevelId2="ES_06_1">
        <iidm:currentLimits1 permanentLimit="5000.0"/>
        <iidm:currentLimits2 permanentLimit="5000.0"/>
    </iidm:line>
    <iidm:line id="ES_11_1  ES_12_1  1" r="2.0" x="10.0" g1="0.0" b1="2.4999999999999998E-5" g2="0.0" b2="2.4999999999999998E-5" connectableBus1="ES_11_1 " voltageLevelId1="ES_11_1" connectableBus2="ES_12_1 " voltageLevelId2="ESCDGN1">
        <iidm:currentLimits1 permanentLimit="5000.0"/>
        <iidm:currentLimits2 permanentLimit="5000.0"/>
    </iidm:line>
    <iidm:line id="ES_13_1  ES_14_1  1" r="2.0" x="10.0" g1="0.0" b1="2.4999999999999998E-5" g2="0.0" b2="2.4999999999999998E-5" connectableBus1="ES_13_1 " voltageLevelId1="ES_13_1" connectableBus2="ES_14_1 " voltageLevelId2="ESCDGU1">
        <iidm:currentLimits1 permanentLimit="5000.0"/>
        <iidm:currentLimits2 permanentLimit="5000.0"/>
    </iidm:line>
    <iidm:line id="ES_L1_1  ES_E1_1  1" r="2.0" x="10.0" g1="0.0" b1="2.4999999999999998E-5" g2="0.0" b2="2.4999999999999998E-5" bus1="ES_L1_1 " connectableBus1="ES_L1_1 " voltageLevelId1="ES_L1_1" bus2="ES_E1_1 " connectableBus2="ES_E1_1 " voltageLevelId2="ES_E1_1">
        <iidm:currentLimits1 permanentLimit="5000.0"/>
        <iidm:currentLimits2 permanentLimit="5000.0"/>
    </iidm:line>
    <iidm:line id="ES_L2_1  ES_E1_1  1" r="2.0" x="10.0" g1="0.0" b1="2.4999999999999998E-5" g2="0.0" b2="2.4999999999999998E-5" bus1="ES_L2_1 " connectableBus1="ES_L2_1 " voltageLevelId1="ES_L2_1" bus2="ES_E1_1 " connectableBus2="ES_E1_1 " voltageLevelId2="ES_E1_1">
        <iidm:currentLimits1 permanentLimit="5000.0"/>
        <iidm:currentLimits2 permanentLimit="5000.0"/>
    </iidm:line>
    <iidm:line id="ES_L1_1  ES_02_1  1" r="2.0" x="10.0" g1="0.0" b1="2.4999999999999998E-5" g2="0.0" b2="2.4999999999999998E-5" bus1="ES_L1_1 " connectableBus1="ES_L1_1 " voltageLevelId1="ES_L1_1" bus2="ES_02_1 " connectableBus2="ES_02_1 " voltageLevelId2="ES_02_1">
        <iidm:currentLimits1 permanentLimit="5000.0"/>
        <iidm:currentLimits2 permanentLimit="5000.0"/>
    </iidm:line>
    <iidm:line id="ES_L1_1  ES_04_1  1" r="2.0" x="10.0" g1="0.0" b1="2.4999999999999998E-5" g2="0.0" b2="2.4999999999999998E-5" bus1="ES_L1_1 " connectableBus1="ES_L1_1 " voltageLevelId1="ES_L1_1" bus2="ES_04_1 " connectableBus2="ES_04_1 " voltageLevelId2="ESCTGU1">
        <iidm:currentLimits1 permanentLimit="5000.0"/>
        <iidm:currentLimits2 permanentLimit="5000.0"/>
    </iidm:line>
    <iidm:line id="ES_L1_1  ES_05_1  1" r="2.0" x="10.0" g1="0.0" b1="2.4999999999999998E-5" g2="0.0" b2="2.4999999999999998E-5" bus1="ES_L1_1 " connectableBus1="ES_L1_1 " voltageLevelId1="ES_L1_1" bus2="ES_05_1 " connectableBus2="ES_05_1 " voltageLevelId2="ES_05_1">
        <iidm:currentLimits1 permanentLimit="5000.0"/>
        <iidm:currentLimits2 permanentLimit="5000.0"/>
    </iidm:line>
    <iidm:line id="ES_L1_1  ES_08_1  1" r="2.0" x="10.0" g1="0.0" b1="2.4999999999999998E-5" g2="0.0" b2="2.4999999999999998E-5" bus1="ES_L1_1 " connectableBus1="ES_L1_1 " voltageLevelId1="ES_L1_1" bus2="ES_08_1 " connectableBus2="ES_08_1 " voltageLevelId2="ESDTGU1">
        <iidm:currentLimits1 permanentLimit="5000.0"/>
        <iidm:currentLimits2 permanentLimit="5000.0"/>
    </iidm:line>
    <iidm:line id="ES_L1_1  ES_10_1  1" r="2.0" x="10.0" g1="0.0" b1="2.4999999999999998E-5" g2="0.0" b2="2.4999999999999998E-5" bus1="ES_L1_1 " connectableBus1="ES_L1_1 " voltageLevelId1="ES_L1_1" bus2="ES_10_1 " connectableBus2="ES_10_1 " voltageLevelId2="ESD2GU1">
        <iidm:currentLimits1 permanentLimit="5000.0"/>
        <iidm:currentLimits2 permanentLimit="5000.0"/>
    </iidm:line>
    <iidm:line id="ES_L2_1  ES_03_1  1" r="2.0" x="10.0" g1="0.0" b1="2.4999999999999998E-5" g2="0.0" b2="2.4999999999999998E-5" bus1="ES_L2_1 " connectableBus1="ES_L2_1 " voltageLevelId1="ES_L2_1" bus2="ES_03_1 " connectableBus2="ES_03_1 " voltageLevelId2="ESCTGN1">
        <iidm:currentLimits1 permanentLimit="5000.0"/>
        <iidm:currentLimits2 permanentLimit="5000.0"/>
    </iidm:line>
    <iidm:line id="ES_L2_1  ES_01_1  1" r="2.0" x="10.0" g1="0.0" b1="2.4999999999999998E-5" g2="0.0" b2="2.4999999999999998E-5" bus1="ES_L2_1 " connectableBus1="ES_L2_1 " voltageLevelId1="ES_L2_1" bus2="ES_01_1 " connectableBus2="ES_01_1 " voltageLevelId2="ES_01_1">
        <iidm:currentLimits1 permanentLimit="5000.0"/>
        <iidm:currentLimits2 permanentLimit="5000.0"/>
    </iidm:line>
    <iidm:line id="ES_L2_1  ES_06_1  1" r="2.0" x="10.0" g1="0.0" b1="2.4999999999999998E-5" g2="0.0" b2="2.4999999999999998E-5" bus1="ES_L2_1 " connectableBus1="ES_L2_1 " voltageLevelId1="ES_L2_1" bus2="ES_06_1 " connectableBus2="ES_06_1 " voltageLevelId2="ES_06_1">
        <iidm:currentLimits1 permanentLimit="5000.0"/>
        <iidm:currentLimits2 permanentLimit="5000.0"/>
    </iidm:line>
    <iidm:line id="ES_L2_1  ES_07_1  1" r="2.0" x="10.0" g1="0.0" b1="2.4999999999999998E-5" g2="0.0" b2="2.4999999999999998E-5" bus1="ES_L2_1 " connectableBus1="ES_L2_1 " voltageLevelId1="ES_L2_1" bus2="ES_07_1 " connectableBus2="ES_07_1 " voltageLevelId2="ESDTGN1">
        <iidm:currentLimits1 permanentLimit="5000.0"/>
        <iidm:currentLimits2 permanentLimit="5000.0"/>
    </iidm:line>
    <iidm:line id="ES_L2_1  ES_09_1  1" r="2.0" x="10.0" g1="0.0" b1="2.4999999999999998E-5" g2="0.0" b2="2.4999999999999998E-5" bus1="ES_L2_1 " connectableBus1="ES_L2_1 " voltageLevelId1="ES_L2_1" bus2="ES_09_1 " connectableBus2="ES_09_1 " voltageLevelId2="ESD2GN1">
        <iidm:currentLimits1 permanentLimit="5000.0"/>
        <iidm:currentLimits2 permanentLimit="5000.0"/>
    </iidm:line>
    <iidm:line id="ES_01_1  ESDCGN1  1" r="2.0" x="10.0" g1="0.0" b1="2.4999999999999998E-5" g2="0.0" b2="2.4999999999999998E-5" bus1="ES_01_1 " connectableBus1="ES_01_1 " voltageLevelId1="ES_01_1" bus2="ESDCGN1 " connectableBus2="ESDCGN1 " voltageLevelId2="ESDCGN1">
        <iidm:currentLimits1 permanentLimit="5000.0"/>
        <iidm:currentLimits2 permanentLimit="5000.0"/>
    </iidm:line>
    <iidm:line id="ES_02_1  ESDCGU1  1" r="2.0" x="10.0" g1="0.0" b1="2.4999999999999998E-5" g2="0.0" b2="2.4999999999999998E-5" bus1="ES_02_1 " connectableBus1="ES_02_1 " voltageLevelId1="ES_02_1" bus2="ESDCGU1 " connectableBus2="ESDCGU1 " voltageLevelId2="ESDCGU1">
        <iidm:currentLimits1 permanentLimit="5000.0"/>
        <iidm:currentLimits2 permanentLimit="5000.0"/>
    </iidm:line>
    <iidm:line id="ES_05_1  ESDDGN1  1" r="2.0" x="10.0" g1="0.0" b1="2.4999999999999998E-5" g2="0.0" b2="2.4999999999999998E-5" bus1="ES_05_1 " connectableBus1="ES_05_1 " voltageLevelId1="ES_05_1" bus2="ESDDGN1 " connectableBus2="ESDDGN1 " voltageLevelId2="ESDDGN1">
        <iidm:currentLimits1 permanentLimit="5000.0"/>
        <iidm:currentLimits2 permanentLimit="5000.0"/>
    </iidm:line>
    <iidm:line id="ES_06_1  ESDDGU1  1" r="2.0" x="10.0" g1="0.0" b1="2.4999999999999998E-5" g2="0.0" b2="2.4999999999999998E-5" bus1="ES_06_1 " connectableBus1="ES_06_1 " voltageLevelId1="ES_06_1" bus2="ESDDGU1 " connectableBus2="ESDDGU1 " voltageLevelId2="ESDDGU1">
        <iidm:currentLimits1 permanentLimit="5000.0"/>
        <iidm:currentLimits2 permanentLimit="5000.0"/>
    </iidm:line>
</iidm:network>
